
     RDKit          3D

122124  0  0  0  0  0  0  0  0999 V2000
    4.2849    1.3837    0.0298 N   0  0  0  0  0  0  0  0  0  0  0  0
    5.7108    1.0350    0.0912 C   0  0  2  0  0  0  0  0  0  0  0  0
    6.1885    0.4606   -1.1775 C   0  0  0  0  0  0  0  0  0  0  0  0
    5.3030    0.0650   -2.0082 O   0  0  0  0  0  0  0  0  0  0  0  0
    7.5606    0.3564   -1.4602 N   0  0  0  0  0  0  0  0  0  0  0  0
    8.6517    0.8295   -0.6420 C   0  0  2  0  0  0  0  0  0  0  0  0
    8.9150    2.2655   -0.9603 C   0  0  0  0  0  0  0  0  0  0  0  0
    9.8218    2.8556   -0.3438 O   0  0  0  0  0  0  0  0  0  0  0  0
    8.1682    2.9101   -1.9116 O   0  0  0  0  0  0  0  0  0  0  0  0
    3.8884    2.7027    0.3591 C   0  0  0  0  0  0  0  0  0  0  0  0
    2.4707    3.1703    0.3454 C   0  0  1  0  0  0  0  0  0  0  0  0
    4.7754    3.5194    0.6799 O   0  0  0  0  0  0  0  0  0  0  0  0
    1.5846    2.0235    0.0639 N   0  0  0  0  0  0  0  0  0  0  0  0
    2.1203    3.6056    1.7298 C   0  0  0  0  0  0  0  0  0  0  0  0
    1.4830    1.4858   -1.2479 C   0  0  0  0  0  0  0  0  0  0  0  0
    0.9622    1.6666    1.2947 C   0  0  0  0  0  0  0  0  0  0  0  0
    0.7161    3.0516    1.9447 C   0  0  0  0  0  0  0  0  0  0  0  0
    0.6847    0.3092   -1.6289 C   0  0  1  0  0  0  0  0  0  0  0  0
    2.1235    2.0372   -2.1933 O   0  0  0  0  0  0  0  0  0  0  0  0
   -0.0748   -0.3105   -0.5865 N   0  0  0  0  0  0  0  0  0  0  0  0
   -0.1060    0.6197   -2.8790 C   0  0  0  0  0  0  0  0  0  0  0  0
    0.4638   -1.3989    0.2119 C   0  0  0  0  0  0  0  0  0  0  0  0
   -0.3208   -2.0242    1.2755 C   0  0  1  0  0  0  0  0  0  0  0  0
    1.6344   -1.7237   -0.1027 O   0  0  0  0  0  0  0  0  0  0  0  0
   -1.7020   -1.5234    1.3015 N   0  0  0  0  0  0  0  0  0  0  0  0
   -0.3329   -3.5239    1.2896 C   0  0  0  0  0  0  0  0  0  0  0  0
   -2.2837   -0.9846    2.4663 C   0  0  0  0  0  0  0  0  0  0  0  0
   -0.8859   -4.1732    0.0612 C   0  0  0  0  0  0  0  0  0  0  0  0
   -3.6385   -0.4835    2.6199 C   0  0  1  0  0  0  0  0  0  0  0  0
   -1.5182   -0.9511    3.4895 O   0  0  0  0  0  0  0  0  0  0  0  0
   -0.8594   -5.6948    0.2365 C   0  0  0  0  0  0  0  0  0  0  0  0
   -4.4299   -0.3858    1.4511 N   0  0  0  0  0  0  0  0  0  0  0  0
   -4.2954   -1.5148    3.6170 C   0  0  0  0  0  0  0  0  0  0  0  0
    0.5017   -6.2489    0.4503 C   0  0  0  0  0  0  0  0  0  0  0  0
   -5.7928   -0.0754    1.3150 C   0  0  0  0  0  0  0  0  0  0  0  0
   -3.3270   -1.4606    5.1752 S   0  0  0  0  0  0  0  0  0  0  0  0
    0.3748   -7.6880    0.6070 N   0  0  0  0  0  0  0  0  0  0  0  0
   -6.5012    0.0293    0.0063 C   0  0  1  0  0  0  0  0  0  0  0  0
   -6.4488    0.1210    2.3693 O   0  0  0  0  0  0  0  0  0  0  0  0
   -5.6092    0.5100   -1.0298 N   0  0  0  0  0  0  0  0  0  0  0  0
   -6.9911   -1.3629   -0.3311 C   0  0  2  0  0  0  0  0  0  0  0  0
   -5.9456    1.6132   -1.8674 C   0  0  0  0  0  0  0  0  0  0  0  0
   -7.7246   -1.4944   -1.6028 C   0  0  0  0  0  0  0  0  0  0  0  0
   -7.8077   -1.9053    0.8050 C   0  0  0  0  0  0  0  0  0  0  0  0
   -5.0889    2.1730   -2.9123 C   0  0  1  0  0  0  0  0  0  0  0  0
   -7.0801    2.1297   -1.6638 O   0  0  0  0  0  0  0  0  0  0  0  0
   -8.9786   -0.6897   -1.7060 C   0  0  0  0  0  0  0  0  0  0  0  0
   -5.8449    3.2594   -3.5749 N   0  0  0  0  0  0  0  0  0  0  0  0
   -3.9561    3.0045   -2.3320 C   0  0  0  0  0  0  0  0  0  0  0  0
   -5.8614    4.3497   -2.6140 C   0  0  0  0  0  0  0  0  0  0  0  0
   -4.7284    4.1360   -1.6734 C   0  0  0  0  0  0  0  0  0  0  0  0
    5.7755   -0.0921    1.1516 C   0  0  0  0  0  0  0  0  0  0  0  0
    5.2564    0.4416    2.4510 C   0  0  0  0  0  0  0  0  0  0  0  0
    6.0118    1.5579    3.0233 C   0  0  0  0  0  0  0  0  0  0  0  0
    5.5297    2.1405    4.0405 O   0  0  0  0  0  0  0  0  0  0  0  0
    7.2116    2.0172    2.5307 O   0  0  0  0  0  0  0  0  0  0  0  0
    8.1201   -0.2707   -2.6557 C   0  0  0  0  0  0  0  0  0  0  0  0
    9.6023   -0.0701   -2.5758 C   0  0  0  0  0  0  0  0  0  0  0  0
    9.8542   -0.0159   -1.0771 C   0  0  0  0  0  0  0  0  0  0  0  0
    3.5790    0.6869   -0.2434 H   0  0  0  0  0  0  0  0  0  0  0  0
    6.3530    1.8360    0.4234 H   0  0  0  0  0  0  0  0  0  0  0  0
    8.5208    0.6791    0.4270 H   0  0  0  0  0  0  0  0  0  0  0  0
    8.3795    3.8225   -2.2643 H   0  0  0  0  0  0  0  0  0  0  0  0
    2.3416    3.9564   -0.4285 H   0  0  0  0  0  0  0  0  0  0  0  0
    2.1598    4.6636    1.9295 H   0  0  0  0  0  0  0  0  0  0  0  0
    2.7493    3.0756    2.4893 H   0  0  0  0  0  0  0  0  0  0  0  0
   -0.0032    1.1905    1.2701 H   0  0  0  0  0  0  0  0  0  0  0  0
    1.6610    1.1197    1.9846 H   0  0  0  0  0  0  0  0  0  0  0  0
    0.0347    3.6321    1.3265 H   0  0  0  0  0  0  0  0  0  0  0  0
    0.4353    2.9291    2.9801 H   0  0  0  0  0  0  0  0  0  0  0  0
    1.4400   -0.4938   -1.9558 H   0  0  0  0  0  0  0  0  0  0  0  0
   -1.0726   -0.0469   -0.3273 H   0  0  0  0  0  0  0  0  0  0  0  0
   -0.6869    1.5300   -2.8502 H   0  0  0  0  0  0  0  0  0  0  0  0
    0.6713    0.6378   -3.7056 H   0  0  0  0  0  0  0  0  0  0  0  0
   -0.7165   -0.2925   -3.1182 H   0  0  0  0  0  0  0  0  0  0  0  0
    0.1462   -1.7414    2.2629 H   0  0  0  0  0  0  0  0  0  0  0  0
   -2.2891   -1.5664    0.4437 H   0  0  0  0  0  0  0  0  0  0  0  0
    0.6595   -3.8763    1.5713 H   0  0  0  0  0  0  0  0  0  0  0  0
   -1.0121   -3.7985    2.1527 H   0  0  0  0  0  0  0  0  0  0  0  0
   -0.1381   -3.9704   -0.7562 H   0  0  0  0  0  0  0  0  0  0  0  0
   -1.9063   -3.9075   -0.1932 H   0  0  0  0  0  0  0  0  0  0  0  0
   -3.7107    0.4248    3.2305 H   0  0  0  0  0  0  0  0  0  0  0  0
   -1.5861   -6.0154    1.0147 H   0  0  0  0  0  0  0  0  0  0  0  0
   -1.2300   -6.1009   -0.7415 H   0  0  0  0  0  0  0  0  0  0  0  0
   -3.9468   -0.5782    0.5143 H   0  0  0  0  0  0  0  0  0  0  0  0
   -5.3103   -1.1913    3.8827 H   0  0  0  0  0  0  0  0  0  0  0  0
   -4.2547   -2.5139    3.2051 H   0  0  0  0  0  0  0  0  0  0  0  0
    1.1387   -6.1094   -0.4517 H   0  0  0  0  0  0  0  0  0  0  0  0
    1.0421   -5.8633    1.3220 H   0  0  0  0  0  0  0  0  0  0  0  0
   -2.8999   -0.1215    5.4113 H   0  0  0  0  0  0  0  0  0  0  0  0
    0.4397   -8.1907   -0.2884 H   0  0  0  0  0  0  0  0  0  0  0  0
   -0.3928   -7.9792    1.2229 H   0  0  0  0  0  0  0  0  0  0  0  0
   -7.3639    0.6750    0.1286 H   0  0  0  0  0  0  0  0  0  0  0  0
   -4.7029    0.0535   -1.1798 H   0  0  0  0  0  0  0  0  0  0  0  0
   -6.0592   -1.9996   -0.3805 H   0  0  0  0  0  0  0  0  0  0  0  0
   -7.9595   -2.5551   -1.8205 H   0  0  0  0  0  0  0  0  0  0  0  0
   -7.0820   -1.1703   -2.4802 H   0  0  0  0  0  0  0  0  0  0  0  0
   -8.3934   -2.7700    0.3710 H   0  0  0  0  0  0  0  0  0  0  0  0
   -8.5601   -1.1959    1.1362 H   0  0  0  0  0  0  0  0  0  0  0  0
   -7.2003   -2.3853    1.6010 H   0  0  0  0  0  0  0  0  0  0  0  0
   -4.7790    1.4157   -3.6233 H   0  0  0  0  0  0  0  0  0  0  0  0
   -9.3357   -0.2588   -0.7506 H   0  0  0  0  0  0  0  0  0  0  0  0
   -9.8369   -1.3303   -2.0799 H   0  0  0  0  0  0  0  0  0  0  0  0
   -8.9262    0.1611   -2.4110 H   0  0  0  0  0  0  0  0  0  0  0  0
   -5.1681    3.5861   -4.3334 H   0  0  0  0  0  0  0  0  0  0  0  0
   -3.2976    2.4813   -1.6501 H   0  0  0  0  0  0  0  0  0  0  0  0
   -3.4001    3.4388   -3.1704 H   0  0  0  0  0  0  0  0  0  0  0  0
   -6.8143    4.3967   -2.0741 H   0  0  0  0  0  0  0  0  0  0  0  0
   -5.6944    5.3235   -3.1558 H   0  0  0  0  0  0  0  0  0  0  0  0
   -4.0297    5.0075   -1.5878 H   0  0  0  0  0  0  0  0  0  0  0  0
   -5.0619    3.8747   -0.6442 H   0  0  0  0  0  0  0  0  0  0  0  0
    6.7723   -0.5234    1.1775 H   0  0  0  0  0  0  0  0  0  0  0  0
    5.0834   -0.8773    0.7327 H   0  0  0  0  0  0  0  0  0  0  0  0
    4.1789    0.7177    2.2709 H   0  0  0  0  0  0  0  0  0  0  0  0
    5.2831   -0.4319    3.1669 H   0  0  0  0  0  0  0  0  0  0  0  0
    7.9016    2.4544    3.1163 H   0  0  0  0  0  0  0  0  0  0  0  0
    7.6730    0.1791   -3.5621 H   0  0  0  0  0  0  0  0  0  0  0  0
    7.9094   -1.3809   -2.6286 H   0  0  0  0  0  0  0  0  0  0  0  0
   10.2061   -0.8900   -3.0267 H   0  0  0  0  0  0  0  0  0  0  0  0
    9.8832    0.9115   -2.9852 H   0  0  0  0  0  0  0  0  0  0  0  0
    9.7754   -1.0213   -0.6746 H   0  0  0  0  0  0  0  0  0  0  0  0
   10.7875    0.5168   -0.8604 H   0  0  0  0  0  0  0  0  0  0  0  0
  1  2  1  0
  2  3  1  0
  3  4  2  0
  3  5  1  0
  5  6  1  0
  6  7  1  0
  7  8  2  0
  7  9  1  0
 10  1  1  0
 11 10  1  0
 10 12  2  0
 13 11  1  0
 14 11  1  0
 15 13  1  0
 13 16  1  0
 17 14  1  0
 18 15  1  0
 15 19  2  0
 16 17  1  0
 20 18  1  0
 21 18  1  0
 22 20  1  0
 23 22  1  0
 22 24  2  0
 25 23  1  0
 26 23  1  0
 27 25  1  0
 28 26  1  0
 29 27  1  0
 27 30  2  0
 28 31  1  0
 32 29  1  0
 33 29  1  0
 31 34  1  0
 35 32  1  0
 33 36  1  0
 34 37  1  0
 38 35  1  0
 35 39  2  0
 40 38  1  0
 41 38  1  0
 42 40  1  0
 43 41  1  0
 41 44  1  0
 45 42  1  0
 42 46  2  0
 47 43  1  0
 48 45  1  0
 49 45  1  0
 48 50  1  0
 51 49  1  0
 50 51  1  0
 52  2  1  0
 52 53  1  0
 53 54  1  0
 54 55  2  0
 54 56  1  0
  5 57  1  0
 57 58  1  0
 58 59  1  0
 59  6  1  0
  1 60  1  0
  2 61  1  1
  6 62  1  1
  9 63  1  0
 11 64  1  6
 14 65  1  0
 14 66  1  0
 16 67  1  0
 16 68  1  0
 17 69  1  0
 17 70  1  0
 18 71  1  6
 20 72  1  0
 21 73  1  0
 21 74  1  0
 21 75  1  0
 23 76  1  1
 25 77  1  0
 26 78  1  0
 26 79  1  0
 28 80  1  0
 28 81  1  0
 29 82  1  1
 31 83  1  0
 31 84  1  0
 32 85  1  0
 33 86  1  0
 33 87  1  0
 34 88  1  0
 34 89  1  0
 36 90  1  0
 37 91  1  0
 37 92  1  0
 38 93  1  1
 40 94  1  0
 41 95  1  6
 43 96  1  0
 43 97  1  0
 44 98  1  0
 44 99  1  0
 44100  1  0
 45101  1  6
 47102  1  0
 47103  1  0
 47104  1  0
 48105  1  0
 49106  1  0
 49107  1  0
 50108  1  0
 50109  1  0
 51110  1  0
 51111  1  0
 52112  1  0
 52113  1  0
 53114  1  0
 53115  1  0
 56116  1  0
 57117  1  0
 57118  1  0
 58119  1  0
 58120  1  0
 59121  1  0
 59122  1  0
M  END
$$$$
